Version 4.1
SHEET 1 976 680
WIRE 80 16 -16 16
WIRE 240 16 160 16
WIRE 304 16 240 16
WIRE 432 16 368 16
WIRE 544 16 432 16
WIRE 688 16 544 16
WIRE 544 32 544 16
WIRE -16 48 -16 16
WIRE 240 64 240 16
WIRE 432 64 432 16
WIRE 688 64 688 16
WIRE 192 80 112 80
WIRE 112 112 112 80
WIRE 192 144 192 80
WIRE 544 144 544 112
WIRE -16 240 -16 128
WIRE 112 240 112 192
WIRE 112 240 -16 240
WIRE 240 240 240 160
WIRE 240 240 112 240
WIRE 432 240 432 128
WIRE 432 240 240 240
WIRE 544 240 544 224
WIRE 544 240 432 240
WIRE 688 240 688 144
WIRE 688 240 544 240
WIRE 240 288 240 240
FLAG 240 288 0
SYMBOL voltage -16 32 R0
WINDOW 123 0 0 Left 0
WINDOW 39 0 0 Left 0
SYMATTR InstName V1
SYMATTR Value 6
SYMBOL ind 64 0 M90
WINDOW 0 5 56 VBottom 2
WINDOW 3 32 56 VTop 2
SYMATTR InstName L1
SYMATTR Value 47”
SYMATTR SpiceLine Rser=0.02
SYMBOL nmos 192 64 R0
SYMATTR InstName M1
SYMATTR Value BSB012N03LX3
SYMBOL cap 416 64 R0
SYMATTR InstName C1
SYMATTR Value 470”
SYMATTR SpiceLine Rser=0.01
SYMBOL res 672 48 R0
SYMATTR InstName R1
SYMATTR Value 15
SYMBOL voltage 112 96 R0
WINDOW 123 0 0 Left 0
WINDOW 39 0 0 Left 0
SYMATTR InstName V2
SYMATTR Value PULSE(0 5 0 10n 10n 6u 10u)
SYMBOL schottky 304 32 R270
WINDOW 0 32 32 VTop 2
WINDOW 3 0 32 VBottom 2
SYMATTR InstName D2
SYMATTR Value RB085T-60NZ
SYMBOL res 528 16 R0
SYMATTR InstName R2
SYMATTR Value 10k
SYMBOL res 528 128 R0
SYMATTR InstName R3
SYMATTR Value 2k
TEXT -168 -48 Left 2 !.tran 20m
